/*--------------------------------*- C++ -*----------------------------------*\
| =========                 |                                                 |
| \\      /  F ield         | foam-extend: Open Source CFD                    |
|  \\    /   O peration     | Version:     4.1                                |
|   \\  /    A nd           | Web:         http://www.foam-extend.org         |
|    \\/     M anipulation  |                                                 |
\*---------------------------------------------------------------------------*/
FoamFile
{
    version     2.0;
    format      ascii;
    class       scalarAverageField;
    object      values;
}
// * * * * * * * * * * * * * * * * * * * * * * * * * * * * * * * * * * * * * //

// Average
0.0

// Data on points
162
(

0.00010286027776905364
6.049098645371901e-05
1.3864556645960318e-05
2.970236428002476e-05
0.00016591740686821852
0.00016218928035226422
2.970236428002476e-05
1.3864556645960318e-05
6.049098645371901e-05
0.00010286027776905364
0.00016218928035226422
0.00016591740686821852
9.805363919118947e-05
9.355232224160307e-05
8.932522289608458e-05
8.535016607399039e-05
8.160579867155295e-05
7.807458239068034e-05
7.473665211820785e-05
7.157839469675309e-05
6.85862317578392e-05
6.574910032832011e-05
6.305360470593559e-05
5.607634055941869e-05
5.2033978295744315e-05
4.8323458079082314e-05
4.490712152105738e-05
4.175570818400794e-05
3.888320007140609e-05
3.7028641322917656e-05
3.523401003045462e-05
3.349793578740806e-05
3.182021973744514e-05
3.0199117853916564e-05
2.8635422766836485e-05
2.712531754486651e-05
2.566925888355784e-05
2.426626188990648e-05
2.2915341670908373e-05
2.1615513333559537e-05
2.0365791984855978e-05
1.9165192731793646e-05
1.801273068136856e-05
1.6907420940576696e-05
1.5848278616414026e-05
1.483431881587658e-05
1.2617093904914753e-05
1.1439247670224031e-05
1.0317699150308075e-05
9.249019894885587e-06
8.227994462677951e-06
7.25016157008249e-06
6.314875391099108e-06
5.422298689901262e-06
4.5759348748277305e-06
3.779125914368161e-06
3.0383472966589305e-06
2.584875082108257e-06
2.584875082108257e-06
2.584875082108257e-06
2.584875082108257e-06
2.584875082108257e-06
2.584875082108257e-06
2.584875082108257e-06
2.584875082108257e-06
2.584875082108257e-06
2.584875082108257e-06
2.584875082108257e-06
2.584875082108257e-06
2.584875082108257e-06
2.884326818478957e-06
5.721265559469393e-06
1.0459245595324486e-05
1.8025502044110248e-05
0.0001583937613771815
0.00015458787361251575
0.00015075927669022798
0.00014689546206076966
0.00014298217177514616
0.00013900648432117329
0.00013495314794603115
0.00013080638368070775
0.0001265486992544514
0.00012216140318300773
0.00011762465955855696
0.00011291381122210293
0.00010800155286008857
1.2617093904914753e-05
1.1439247670224031e-05
1.0317699150308075e-05
9.249019894885587e-06
8.227994462677951e-06
7.25016157008249e-06
6.314875391099108e-06
5.422298689901262e-06
4.5759348748277305e-06
3.779125914368161e-06
3.0383472966589305e-06
2.584875082108257e-06
2.584875082108257e-06
2.584875082108257e-06
2.584875082108257e-06
2.584875082108257e-06
2.584875082108257e-06
2.584875082108257e-06
2.584875082108257e-06
2.584875082108257e-06
2.584875082108257e-06
2.584875082108257e-06
2.584875082108257e-06
2.584875082108257e-06
2.884326818478957e-06
5.721265559469393e-06
1.0459245595324486e-05
1.8025502044110248e-05
5.607634055941869e-05
5.2033978295744315e-05
4.8323458079082314e-05
4.490712152105738e-05
4.175570818400794e-05
3.888320007140609e-05
3.7028641322917656e-05
3.523401003045462e-05
3.349793578740806e-05
3.182021973744514e-05
3.0199117853916564e-05
2.8635422766836485e-05
2.712531754486651e-05
2.566925888355784e-05
2.426626188990648e-05
2.2915341670908373e-05
2.1615513333559537e-05
2.0365791984855978e-05
1.9165192731793646e-05
1.801273068136856e-05
1.6907420940576696e-05
1.5848278616414026e-05
1.483431881587658e-05
9.805363919118947e-05
9.355232224160307e-05
8.932522289608458e-05
8.535016607399039e-05
8.160579867155295e-05
7.807458239068034e-05
7.473665211820785e-05
7.157839469675309e-05
6.85862317578392e-05
6.574910032832011e-05
6.305360470593559e-05
0.0001583937613771815
0.00015458787361251575
0.00015075927669022798
0.00014689546206076966
0.00014298217177514616
0.00013900648432117329
0.00013495314794603115
0.00013080638368070775
0.0001265486992544514
0.00012216140318300773
0.00011762465955855696
0.00011291381122210293
0.00010800155286008857

)


// ************************************************************************* //
