/*--------------------------------*- C++ -*----------------------------------*\
| =========                 |                                                 |
| \\      /  F ield         | foam-extend: Open Source CFD                    |
|  \\    /   O peration     | Version:     4.1                                |
|   \\  /    A nd           | Web:         http://www.foam-extend.org         |
|    \\/     M anipulation  |                                                 |
\*---------------------------------------------------------------------------*/
FoamFile
{
    version     2.0;
    format      ascii;
    class       scalarAverageField;
    object      values;
}
// * * * * * * * * * * * * * * * * * * * * * * * * * * * * * * * * * * * * * //

// Average
0.0

// Data on points
162
(

0.0006025546734106116
0.0005019227929220953
0.00020974151634202117
0.00034855749508478837
0.0006831726903661855
0.000679663748120867
0.00034855749508478837
0.00020974151634202117
0.0005019227929220953
0.0006025546734106116
0.000679663748120867
0.0006831726903661855
0.0005938168449547024
0.0005851464479466004
0.0005765362298584856
0.000567989830294261
0.0005595072492539263
0.0005510919929526128
0.0005427370222800727
0.0005344458701314225
0.0005262185365066619
0.0005180584209121369
0.0005099586976551712
0.0004872450510865668
0.00047278186897021173
0.00045853979099932707
0.0004445123713364063
0.00043070595723016555
0.000417114300020679
0.00040374354977908215
0.00039059060682539805
0.0003776525686460769
0.0003649352895570368
0.00035243301383114985
0.00034015966254803914
0.0003280930013756701
0.0003162442460800043
0.00030461339666104176
0.00029320045311878227
0.0002820054154532259
0.0002710282836643729
0.0002602690577522229
0.0002497277377167762
0.00023940432355803272
0.00022929881527599224
0.00021941121287065516
0.00019696390049500572
0.00018450666308209636
0.00017224064877252663
0.00016013178872018879
0.00014811864813292098
0.00013613784420043326
0.00012416244876488526
0.00011216810184006049
0.00010016906862942586
8.817415787799703e-05
7.62380925548104e-05
6.845e-05
6.845e-05
6.845e-05
6.845e-05
6.845e-05
6.845e-05
6.845e-05
6.845e-05
6.845e-05
6.845e-05
6.845e-05
6.845e-05
6.845e-05
7.363936889062047e-05
0.00011625415491268059
0.00017381235865244313
0.000249845764861532
0.0006759696660764593
0.0006721357885944228
0.000668141004002022
0.0006639614500123205
0.0006595682938153674
0.0006549305421352817
0.0006500101974779351
0.0006447632402242059
0.0006391368567628062
0.0006330683046759739
0.0006264827801320428
0.0006192847912042754
0.0006113563203904106
0.00019696390049500572
0.00018450666308209636
0.00017224064877252663
0.00016013178872018879
0.00014811864813292098
0.00013613784420043326
0.00012416244876488526
0.00011216810184006049
0.00010016906862942586
8.817415787799703e-05
7.62380925548104e-05
6.845e-05
6.845e-05
6.845e-05
6.845e-05
6.845e-05
6.845e-05
6.845e-05
6.845e-05
6.845e-05
6.845e-05
6.845e-05
6.845e-05
6.845e-05
7.363936889062047e-05
0.00011625415491268059
0.00017381235865244313
0.000249845764861532
0.0004872450510865668
0.00047278186897021173
0.00045853979099932707
0.0004445123713364063
0.00043070595723016555
0.000417114300020679
0.00040374354977908215
0.00039059060682539805
0.0003776525686460769
0.0003649352895570368
0.00035243301383114985
0.00034015966254803914
0.0003280930013756701
0.0003162442460800043
0.00030461339666104176
0.00029320045311878227
0.0002820054154532259
0.0002710282836643729
0.0002602690577522229
0.0002497277377167762
0.00023940432355803272
0.00022929881527599224
0.00021941121287065516
0.0005938168449547024
0.0005851464479466004
0.0005765362298584856
0.000567989830294261
0.0005595072492539263
0.0005510919929526128
0.0005427370222800727
0.0005344458701314225
0.0005262185365066619
0.0005180584209121369
0.0005099586976551712
0.0006759696660764593
0.0006721357885944228
0.000668141004002022
0.0006639614500123205
0.0006595682938153674
0.0006549305421352817
0.0006500101974779351
0.0006447632402242059
0.0006391368567628062
0.0006330683046759739
0.0006264827801320428
0.0006192847912042754
0.0006113563203904106

)


// ************************************************************************* //
