/*--------------------------------*- C++ -*----------------------------------*\
| =========                 |                                                 |
| \\      /  F ield         | foam-extend: Open Source CFD                    |
|  \\    /   O peration     | Version:     4.1                                |
|   \\  /    A nd           | Web:         http://www.foam-extend.org         |
|    \\/     M anipulation  |                                                 |
\*---------------------------------------------------------------------------*/
FoamFile
{
    version     2.0;
    format      ascii;
    class       scalarAverageField;
    object      values;
}
// * * * * * * * * * * * * * * * * * * * * * * * * * * * * * * * * * * * * * //

// Average
0.0

// Data on points
162
(

1.896744022816469
1.3390945404073544
0.7344784765852074
0.9468345235203517
2.6984783920330044
2.651462756410959
0.9468345235203517
0.7344784765852074
1.3390945404073544
1.896744022816469
2.651462756410959
2.6984783920330044
1.8347153489477275
1.7764275093468287
1.7214919465976628
1.6696340814915382
1.6205886475281008
1.574138929597989
1.5300361163299154
1.4881123441650297
1.4481991584956664
1.4101605720785257
1.3738281375827504
1.2787619890048085
1.2228796245009694
1.1709503134278516
1.1225064791796748
1.0771903786501649
1.0357725839836656
1.0190363369459197
1.002300089908174
0.9855600555323342
0.9688238084945885
0.9520837741187487
0.9353588890952853
0.9186188547194453
0.9018788203436054
0.8851387859677659
0.868398751591926
0.851658717216086
0.8349186828402463
0.8181786484644064
0.8014386140885666
0.7846985797127268
0.7679585453368868
0.7512185109610472
0.7117544480207189
0.6888789259324669
0.6655867966538666
0.6417644400420947
0.617222489192447
0.5917337038192791
0.5651087170178868
0.537120288502625
0.5075790513687902
0.47621989194979614
0.44281556995999816
0.41958852075452585
0.41958852075452585
0.41958852075452585
0.41958852075452585
0.41958852075452585
0.41958852075452585
0.41958852075452585
0.41958852075452585
0.41958852075452585
0.41958852075452585
0.41958852075452585
0.41958852075452585
0.41958852075452585
0.43520302039089437
0.5468158740234734
0.6686166671291318
0.801627980993271
2.6035645832806007
2.555500048183741
2.507110122417808
2.458232779395448
2.4086827890279774
2.3582905256210323
2.3068552269496805
2.2541673787320406
2.1999930742604907
2.1440797370994265
2.086155762312066
2.025881985617781
1.9628769900254834
0.7117544480207189
0.6888789259324669
0.6655867966538666
0.6417644400420947
0.617222489192447
0.5917337038192791
0.5651087170178868
0.537120288502625
0.5075790513687902
0.47621989194979614
0.44281556995999816
0.41958852075452585
0.41958852075452585
0.41958852075452585
0.41958852075452585
0.41958852075452585
0.41958852075452585
0.41958852075452585
0.41958852075452585
0.41958852075452585
0.41958852075452585
0.41958852075452585
0.41958852075452585
0.41958852075452585
0.43520302039089437
0.5468158740234734
0.6686166671291318
0.801627980993271
1.2787619890048085
1.2228796245009694
1.1709503134278516
1.1225064791796748
1.0771903786501649
1.0357725839836656
1.0190363369459197
1.002300089908174
0.9855600555323342
0.9688238084945885
0.9520837741187487
0.9353588890952853
0.9186188547194453
0.9018788203436054
0.8851387859677659
0.868398751591926
0.851658717216086
0.8349186828402463
0.8181786484644064
0.8014386140885666
0.7846985797127268
0.7679585453368868
0.7512185109610472
1.8347153489477275
1.7764275093468287
1.7214919465976628
1.6696340814915382
1.6205886475281008
1.574138929597989
1.5300361163299154
1.4881123441650297
1.4481991584956664
1.4101605720785257
1.3738281375827504
2.6035645832806007
2.555500048183741
2.507110122417808
2.458232779395448
2.4086827890279774
2.3582905256210323
2.3068552269496805
2.2541673787320406
2.1999930742604907
2.1440797370994265
2.086155762312066
2.025881985617781
1.9628769900254834

)


// ************************************************************************* //
