/*--------------------------------*- C++ -*----------------------------------*\
| =========                 |                                                 |
| \\      /  F ield         | foam-extend: Open Source CFD                    |
|  \\    /   O peration     | Version:     4.1                                |
|   \\  /    A nd           | Web:         http://www.foam-extend.org         |
|    \\/     M anipulation  |                                                 |
\*---------------------------------------------------------------------------*/
FoamFile
{
    version     2.0;
    format      ascii;
    class       vectorAverageField;
    object      values;
}
// * * * * * * * * * * * * * * * * * * * * * * * * * * * * * * * * * * * * * //

// Average
(0 0 0)

// Data on points
162
(

(0.3028180750893039 0 0)
(0.31599624115278113 0 0)
(0.3441628328828412 0 0)
(0.37 0 0)
(0.28899436172917176 0 0)
(0.28968932425911975 0 0)
(0.37 0 0)
(0.3441628328828412 0 0)
(0.31599624115278113 0 0)
(0.3028180750893039 0 0)
(0.28968932425911975 0 0)
(0.28899436172917176 0 0)
(0.30410354246646976 0 0)
(0.3053474310258416 0 0)
(0.30655332329926166 0 0)
(0.3077230045211573 0 0)
(0.30885858616338174 0 0)
(0.3099615454129236 0 0)
(0.3110345766045588 0 0)
(0.3120788416761106 0 0)
(0.3130958427852882 0 0)
(0.3140865582890277 0 0)
(0.3150531006541159 0 0)
(0.3176807330806584 0 0)
(0.319295752184181 0 0)
(0.3208461286120409 0 0)
(0.3223374876040873 0 0)
(0.32377353180554547 0 0)
(0.3251588227001461 0 0)
(0.3264962408972794 0 0)
(0.3277892628893671 0 0)
(0.32904102042836547 0 0)
(0.3302535341384422 0 0)
(0.3314297061741675 0 0)
(0.33257038644761017 0 0)
(0.3336796034273503 0 0)
(0.3347581090560224 0 0)
(0.33580755825192427 0 0)
(0.33682947566948573 0 0)
(0.3378252690217699 0 0)
(0.3387962407421823 0 0)
(0.33974359822779776 0 0)
(0.34066846286641544 0 0)
(0.3415718780166314 0 0)
(0.3424548160833486 0 0)
(0.34331818480904347 0 0)
(0.3452808742526367 0 0)
(0.34637486536277856 0 0)
(0.347458083589448 0 0)
(0.3485356569832019 0 0)
(0.34961546218028594 0 0)
(0.3507061150179949 0 0)
(0.3518136893984983 0 0)
(0.3529449985585245 0 0)
(0.3541044733618136 0 0)
(0.35529867080590677 0 0)
(0.3565317278210694 0 0)
(0.3578096037192604 0 0)
(0.35913451612547725 0 0)
(0.36051287635818613 0 0)
(0.36194605416219916 0 0)
(0.3634380184534835 0 0)
(0.36499140540315095 0 0)
(0.3666086595142633 0 0)
(0.36829190360271047 0 0)
(0.37 0 0)
(0.37 0 0)
(0.37 0 0)
(0.37 0 0)
(0.37 0 0)
(0.37 0 0)
(0.37 0 0)
(0.37 0 0)
(0.37 0 0)
(0.2904096893829215 0 0)
(0.29114551714271886 0 0)
(0.2918998950056147 0 0)
(0.2926761802127922 0 0)
(0.293478358342235 0 0)
(0.2943104631294582 0 0)
(0.29517738383235226 0 0)
(0.296084577077447 0 0)
(0.2970384227629346 0 0)
(0.2980462475144161 0 0)
(0.2991164750716666 0 0)
(0.30025973816132134 0 0)
(0.3014887376221477 0 0)
(0.3452808742526367 0 0)
(0.34637486536277856 0 0)
(0.347458083589448 0 0)
(0.3485356569832019 0 0)
(0.34961546218028594 0 0)
(0.3507061150179949 0 0)
(0.3518136893984983 0 0)
(0.3529449985585245 0 0)
(0.3541044733618136 0 0)
(0.35529867080590677 0 0)
(0.3565317278210694 0 0)
(0.3578096037192604 0 0)
(0.35913451612547725 0 0)
(0.36051287635818613 0 0)
(0.36194605416219916 0 0)
(0.3634380184534835 0 0)
(0.36499140540315095 0 0)
(0.3666086595142633 0 0)
(0.36829190360271047 0 0)
(0.37 0 0)
(0.37 0 0)
(0.37 0 0)
(0.37 0 0)
(0.37 0 0)
(0.37 0 0)
(0.37 0 0)
(0.37 0 0)
(0.37 0 0)
(0.3176807330806584 0 0)
(0.319295752184181 0 0)
(0.3208461286120409 0 0)
(0.3223374876040873 0 0)
(0.32377353180554547 0 0)
(0.3251588227001461 0 0)
(0.3264962408972794 0 0)
(0.3277892628893671 0 0)
(0.32904102042836547 0 0)
(0.3302535341384422 0 0)
(0.3314297061741675 0 0)
(0.33257038644761017 0 0)
(0.3336796034273503 0 0)
(0.3347581090560224 0 0)
(0.33580755825192427 0 0)
(0.33682947566948573 0 0)
(0.3378252690217699 0 0)
(0.3387962407421823 0 0)
(0.33974359822779776 0 0)
(0.34066846286641544 0 0)
(0.3415718780166314 0 0)
(0.3424548160833486 0 0)
(0.34331818480904347 0 0)
(0.30410354246646976 0 0)
(0.3053474310258416 0 0)
(0.30655332329926166 0 0)
(0.3077230045211573 0 0)
(0.30885858616338174 0 0)
(0.3099615454129236 0 0)
(0.3110345766045588 0 0)
(0.3120788416761106 0 0)
(0.3130958427852882 0 0)
(0.3140865582890277 0 0)
(0.3150531006541159 0 0)
(0.2904096893829215 0 0)
(0.29114551714271886 0 0)
(0.2918998950056147 0 0)
(0.2926761802127922 0 0)
(0.293478358342235 0 0)
(0.2943104631294582 0 0)
(0.29517738383235226 0 0)
(0.296084577077447 0 0)
(0.2970384227629346 0 0)
(0.2980462475144161 0 0)
(0.2991164750716666 0 0)
(0.30025973816132134 0 0)
(0.3014887376221477 0 0)

)


// ************************************************************************* //
